goiania_leste_dss/TR1/CTMT_5002148.dss
! ==============================================================================
! ALIMENTADOR CTMT_5002148 - GOIANIA LESTE-7
! Subestacao: Trafo TR1 (GOL-S-TRF-TR1) | Barra MT: 1783 -> PAC_INI: 84804355002148
! ==============================================================================

! 1. Disjuntor de Saida MT do Alimentador
new line.DJ_5002148 phases=3 bus1=1783 bus2=84804355002148 switch=y r1=1e-4 x1=1e-4 length=0.001 units=km

! 2. Linhas de Media Tensao (MT)
new line.53037469 phases=3 bus1=81754625002148.1.2.3 bus2=81754615002148.1.2.3 r1=0.975 x1=0.47 length=0.023318 units=km normamps=152.0
new line.53037470 phases=3 bus1=81754655002148.1.2.3 bus2=81754645002148.1.2.3 r1=0.975 x1=0.47 length=0.003628 units=km normamps=152.0
new line.53037471 phases=3 bus1=81754635002148.1.2.3 bus2=81754625002148.1.2.3 r1=0.975 x1=0.47 length=0.036859 units=km normamps=152.0
new line.53037472 phases=3 bus1=81754635002148.1.2.3 bus2=81754645002148.1.2.3 r1=0.975 x1=0.47 length=0.010281 units=km normamps=152.0
new line.53037473 phases=3 bus1=81754715002148.1.2.3 bus2=81754615002148.1.2.3 r1=0.975 x1=0.47 length=0.015233 units=km normamps=152.0
new line.53037474 phases=3 bus1=81754775002148.1.2.3 bus2=81754785002148.1.2.3 r1=0.195 x1=0.4 length=0.033806 units=km normamps=419.0
new line.53037475 phases=3 bus1=81754785002148.1.2.3 bus2=91032835002148.1.2.3 r1=0.195 x1=0.4 length=0.02764 units=km normamps=419.0
new line.53037476 phases=3 bus1=81754795002148B.1.2.3 bus2=91888385002148.1.2.3 r1=0.195 x1=0.4 length=0.007292 units=km normamps=419.0
new line.53037477 phases=3 bus1=81754815002148.1.2.3 bus2=81754805002148B.1.2.3 r1=0.195 x1=0.4 length=0.0177 units=km normamps=419.0
new line.53037478 phases=3 bus1=81754805002148.1.2.3 bus2=81754825002148.1.2.3 r1=0.195 x1=0.4 length=0.042377 units=km normamps=419.0
new line.53037479 phases=3 bus1=81754825002148.1.2.3 bus2=81754835002148.1.2.3 r1=0.195 x1=0.4 length=0.024196 units=km normamps=419.0
new line.53037480 phases=3 bus1=81754835002148.1.2.3 bus2=81754875002148.1.2.3 r1=0.195 x1=0.4 length=0.041715 units=km normamps=419.0
new line.53037481 phases=3 bus1=81754875002148.1.2.3 bus2=81754885002148.1.2.3 r1=0.195 x1=0.4 length=0.03508 units=km normamps=419.0
new line.53037482 phases=3 bus1=81754885002148.1.2.3 bus2=81754895002148.1.2.3 r1=0.195 x1=0.4 length=0.01765 units=km normamps=419.0
new line.53037483 phases=3 bus1=81754905002148.1.2.3 bus2=81754885002148B.1.2.3 r1=0.195 x1=0.4 length=0.010914 units=km normamps=419.0
new line.53037484 phases=3 bus1=81755035002148.1.2.3 bus2=81754785002148.1.2.3 r1=0.195 x1=0.4 length=0.014443 units=km normamps=419.0
new line.53037485 phases=3 bus1=81755045002148.1.2.3 bus2=81754775002148.1.2.3 r1=0.195 x1=0.4 length=0.036807 units=km normamps=419.0
new line.53037486 phases=3 bus1=81755055002148.1.2.3 bus2=81755045002148.1.2.3 r1=0.236 x1=0.27 length=0.035602 units=km normamps=456.0
new line.53037488 phases=3 bus1=81755065002148.1.2.3 bus2=81755055002148.1.2.3 r1=0.236 x1=0.27 length=0.045815 units=km normamps=456.0
new line.53037496 phases=3 bus1=80433905002148B.1.2.3 bus2=81755295002148.1.2.3 r1=1.551 x1=0.49 length=0.030048 units=km normamps=114.0
new line.53037497 phases=3 bus1=81754775002148.1.2.3 bus2=80433905002148.1.2.3 r1=1.551 x1=0.49 length=0.040714 units=km normamps=114.0
new line.53037498 phases=3 bus1=81755295002148.1.2.3 bus2=81755305002148.1.2.3 r1=1.551 x1=0.49 length=0.026178 units=km normamps=114.0
new line.53037502 phases=3 bus1=81755415002148.1.2.3 bus2=81755405002148.1.2.3 r1=0.188 x1=0.26 length=0.025297 units=km normamps=525.0
new line.53037503 phases=3 bus1=80435415002148.1.2.3 bus2=81755415002148.1.2.3 r1=0.188 x1=0.26 length=0.022333 units=km normamps=525.0
new line.53037504 phases=3 bus1=81755405002148.1.2.3 bus2=81755425002148.1.2.3 r1=0.188 x1=0.26 length=0.046626 units=km normamps=525.0
new line.53037505 phases=3 bus1=80435425002148.1.2.3 bus2=80435415002148.1.2.3 r1=0.188 x1=0.26 length=0.024584 units=km normamps=525.0
new line.53037506 phases=3 bus1=81755425002148.1.2.3 bus2=81755435002148.1.2.3 r1=0.188 x1=0.26 length=0.032086 units=km normamps=525.0
new line.53037507 phases=3 bus1=80435435002148.1.2.3 bus2=80435425002148.1.2.3 r1=0.188 x1=0.26 length=0.053788 units=km normamps=525.0
new line.53037508 phases=3 bus1=81755435002148.1.2.3 bus2=81755445002148.1.2.3 r1=0.188 x1=0.26 length=0.033414 units=km normamps=525.0
new line.53037513 phases=3 bus1=81761815002148.1.2.3 bus2=81761805002148.1.2.3 r1=0.975 x1=0.47 length=0.037515 units=km normamps=152.0
new line.53037514 phases=3 bus1=81761825002148.1.2.3 bus2=81761795002148.1.2.3 r1=1.551 x1=0.49 length=0.012925 units=km normamps=114.0
new line.53037515 phases=3 bus1=81761835002148.1.2.3 bus2=81761825002148.1.2.3 r1=1.551 x1=0.49 length=0.027533 units=km normamps=114.0
new line.53037516 phases=3 bus1=81761845002148.1.2.3 bus2=81761835002148.1.2.3 r1=1.551 x1=0.49 length=0.031049 units=km normamps=114.0
new line.53037517 phases=3 bus1=81759705002148.1.2.3 bus2=81761845002148.1.2.3 r1=1.551 x1=0.49 length=0.024584 units=km normamps=114.0
new line.53037563 phases=3 bus1=81757405002148.1.2.3 bus2=81757395002148.1.2.3 r1=1.551 x1=0.49 length=0.032478 units=km normamps=114.0
new line.53037564 phases=3 bus1=81757415002148.1.2.3 bus2=81757405002148.1.2.3 r1=1.551 x1=0.49 length=0.027908 units=km normamps=114.0
new line.53037565 phases=3 bus1=81757425002148.1.2.3 bus2=81757415002148.1.2.3 r1=1.551 x1=0.49 length=0.025625 units=km normamps=114.0
new line.53037566 phases=3 bus1=81757435002148.1.2.3 bus2=81757425002148.1.2.3 r1=0.613 x1=0.44 length=0.020142 units=km normamps=220.0
new line.53037567 phases=3 bus1=81757445002148.1.2.3 bus2=81757435002148.1.2.3 r1=0.613 x1=0.44 length=0.015907 units=km normamps=220.0
new line.53037568 phases=3 bus1=81757455002148.1.2.3 bus2=81757445002148.1.2.3 r1=0.613 x1=0.44 length=0.024164 units=km normamps=220.0
new line.53037569 phases=3 bus1=81757465002148.1.2.3 bus2=81757455002148.1.2.3 r1=0.613 x1=0.44 length=0.038585 units=km normamps=220.0
new line.53037570 phases=3 bus1=81757475002148.1.2.3 bus2=81757465002148.1.2.3 r1=0.613 x1=0.44 length=0.026361 units=km normamps=220.0
new line.53037571 phases=3 bus1=81757485002148.1.2.3 bus2=81757475002148.1.2.3 r1=0.613 x1=0.44 length=0.059053 units=km normamps=220.0
new line.53037572 phases=3 bus1=81757495002148.1.2.3 bus2=81757485002148.1.2.3 r1=0.613 x1=0.44 length=0.033284 units=km normamps=220.0
new line.53037573 phases=3 bus1=81757505002148.1.2.3 bus2=81757495002148.1.2.3 r1=0.613 x1=0.44 length=0.030506 units=km normamps=220.0
new line.53037585 phases=3 bus1=81760845002148.1.2.3 bus2=81765165002148.1.2.3 r1=1.551 x1=0.49 length=0.029535 units=km normamps=114.0
new line.53037586 phases=3 bus1=81757515002148.1.2.3 bus2=81757505002148.1.2.3 r1=0.613 x1=0.44 length=0.034597 units=km normamps=220.0
new line.53037587 phases=3 bus1=81757525002148B.1.2.3 bus2=94086955002148.1.2.3 r1=0.613 x1=0.44 length=0.010718 units=km normamps=220.0
new line.53037588 phases=3 bus1=81757535002148.1.2.3 bus2=81757545002148.1.2.3 r1=0.613 x1=0.45 length=0.010519 units=km normamps=203.0
new line.53037589 phases=3 bus1=81757545002148.1.2.3 bus2=81757525002148.1.2.3 r1=0.613 x1=0.45 length=0.019293 units=km normamps=203.0
new line.53037590 phases=3 bus1=81757555002148.1.2.3 bus2=81757535002148B.1.2.3 r1=0.975 x1=0.46 length=0.031749 units=km normamps=160.0
new line.53037591 phases=3 bus1=81757435002148.1.2.3 bus2=81343465002148.1.2.3 r1=0.613 x1=0.44 length=0.005177 units=km normamps=220.0
new line.53037592 phases=3 bus1=81757635002148.1.2.3 bus2=81757435002148.1.2.3 r1=0.613 x1=0.44 length=0.031217 units=km normamps=220.0
new line.53037593 phases=3 bus1=81757645002148.1.2.3 bus2=81757635002148.1.2.3 r1=0.613 x1=0.44 length=0.021272 units=km normamps=220.0
new line.53037594 phases=3 bus1=81757665002148.1.2.3 bus2=81757645002148.1.2.3 r1=0.613 x1=0.44 length=0.035789 units=km normamps=220.0
new line.53037595 phases=3 bus1=81757715002148.1.2.3 bus2=81757665002148.1.2.3 r1=0.613 x1=0.44 length=0.026996 units=km normamps=220.0
new line.53037596 phases=3 bus1=81757725002148.1.2.3 bus2=81757715002148.1.2.3 r1=0.613 x1=0.44 length=0.02247 units=km normamps=220.0
new line.53037597 phases=3 bus1=81757725002148.1.2.3 bus2=81757735002148.1.2.3 r1=0.975 x1=0.47 length=0.009963 units=km normamps=152.0
new line.53037598 phases=3 bus1=81757745002148.1.2.3 bus2=81757725002148.1.2.3 r1=0.613 x1=0.44 length=0.023192 units=km normamps=220.0
new line.53037599 phases=3 bus1=81757755002148.1.2.3 bus2=81757745002148.1.2.3 r1=0.613 x1=0.44 length=0.054979 units=km normamps=220.0
new line.53037600 phases=3 bus1=81757765002148.1.2.3 bus2=81757755002148.1.2.3 r1=0.975 x1=0.47 length=0.026384 units=km normamps=152.0
new line.53037601 phases=3 bus1=81755675002148.1.2.3 bus2=94364435002148.1.2.3 r1=0.975 x1=0.46 length=0.009415 units=km normamps=160.0
new line.53037602 phases=3 bus1=81757775002148.1.2.3 bus2=81757765002148B.1.2.3 r1=0.975 x1=0.47 length=0.038424 units=km normamps=152.0
new line.53037603 phases=3 bus1=81757785002148.1.2.3 bus2=91560655002148.1.2.3 r1=0.975 x1=0.47 length=0.009791 units=km normamps=152.0
new line.53037604 phases=3 bus1=81757795002148.1.2.3 bus2=81757785002148.1.2.3 r1=0.975 x1=0.47 length=0.018772 units=km normamps=152.0
new line.53037605 phases=3 bus1=81757815002148.1.2.3 bus2=81757795002148.1.2.3 r1=0.613 x1=0.45 length=0.012541 units=km normamps=203.0
new line.53037606 phases=3 bus1=81757805002148.1.2.3 bus2=81757795002148.1.2.3 r1=0.975 x1=0.47 length=0.011432 units=km normamps=152.0
new line.53037607 phases=3 bus1=81757825002148.1.2.3 bus2=81757795002148.1.2.3 r1=0.613 x1=0.45 length=0.011916 units=km normamps=203.0
new line.53037608 phases=3 bus1=81755665002148.1.2.3 bus2=81757825002148.1.2.3 r1=0.975 x1=0.47 length=0.013293 units=km normamps=152.0
new line.53037609 phases=3 bus1=81757835002148.1.2.3 bus2=81757805002148.1.2.3 r1=0.975 x1=0.47 length=0.028018 units=km normamps=152.0
new line.53037610 phases=3 bus1=81757845002148.1.2.3 bus2=81757725002148.1.2.3 r1=0.975 x1=0.47 length=0.004474 units=km normamps=152.0
new line.53037611 phases=3 bus1=81757855002148.1.2.3 bus2=81757845002148.1.2.3 r1=0.975 x1=0.47 length=0.032431 units=km normamps=152.0
new line.53037612 phases=3 bus1=81757865002148.1.2.3 bus2=81757855002148.1.2.3 r1=0.975 x1=0.47 length=0.03571 units=km normamps=152.0
new line.53037613 phases=3 bus1=81757875002148.1.2.3 bus2=81757865002148.1.2.3 r1=0.975 x1=0.47 length=0.026289 units=km normamps=152.0
new line.53037614 phases=3 bus1=81757885002148.1.2.3 bus2=81757875002148.1.2.3 r1=0.975 x1=0.47 length=0.028879 units=km normamps=152.0
new line.53037615 phases=3 bus1=81757895002148.1.2.3 bus2=81757885002148.1.2.3 r1=0.975 x1=0.47 length=0.024826 units=km normamps=152.0
new line.53037616 phases=3 bus1=81757905002148.1.2.3 bus2=81757895002148.1.2.3 r1=0.975 x1=0.47 length=0.021041 units=km normamps=152.0
new line.53037617 phases=3 bus1=81757965002148.1.2.3 bus2=94387135002148.1.2.3 r1=0.613 x1=0.45 length=0.010511 units=km normamps=203.0
new line.53037618 phases=3 bus1=81757975002148.1.2.3 bus2=81757965002148.1.2.3 r1=0.613 x1=0.45 length=0.049089 units=km normamps=203.0
new line.53037619 phases=3 bus1=81757995002148.1.2.3 bus2=81757975002148.1.2.3 r1=0.613 x1=0.45 length=0.043973 units=km normamps=203.0
new line.53037620 phases=3 bus1=81758015002148.1.2.3 bus2=81757995002148.1.2.3 r1=0.613 x1=0.45 length=0.037221 units=km normamps=203.0
new line.53037621 phases=3 bus1=81758025002148.1.2.3 bus2=81758015002148.1.2.3 r1=0.613 x1=0.45 length=0.035789 units=km normamps=203.0
new line.53037622 phases=3 bus1=81758045002148.1.2.3 bus2=91232955002148.1.2.3 r1=0.613 x1=0.45 length=0.021003 units=km normamps=203.0
new line.53037623 phases=3 bus1=81757935002148.1.2.3 bus2=81757945002148.1.2.3 r1=0.975 x1=0.47 length=0.067782 units=km normamps=152.0
new line.53037624 phases=3 bus1=81758135002148.1.2.3 bus2=81758125002148.1.2.3 r1=0.975 x1=0.47 length=0.027807 units=km normamps=152.0
new line.53037625 phases=3 bus1=81758145002148.1.2.3 bus2=81758125002148.1.2.3 r1=0.975 x1=0.47 length=0.007361 units=km normamps=152.0
new line.53037626 phases=3 bus1=81757945002148.1.2.3 bus2=81758135002148.1.2.3 r1=0.975 x1=0.47 length=0.031284 units=km normamps=152.0
new line.53037627 phases=3 bus1=81758155002148.1.2.3 bus2=81757945002148.1.2.3 r1=0.975 x1=0.47 length=0.006192 units=km normamps=152.0
new line.53037628 phases=3 bus1=81758165002148.1.2.3 bus2=81757545002148.1.2.3 r1=0.613 x1=0.45 length=0.011061 units=km normamps=203.0
new line.53037629 phases=3 bus1=81757545002148.1.2.3 bus2=81757955002148.1.2.3 r1=0.613 x1=0.45 length=0.031299 units=km normamps=203.0
new line.53037630 phases=3 bus1=81758175002148.1.2.3 bus2=81758165002148.1.2.3 r1=0.613 x1=0.45 length=0.030662 units=km normamps=203.0
new line.53037631 phases=3 bus1=81758185002148.1.2.3 bus2=81758175002148.1.2.3 r1=0.613 x1=0.45 length=0.030674 units=km normamps=203.0
new line.53037632 phases=3 bus1=81758195002148.1.2.3 bus2=95176265002148.1.2.3 r1=0.613 x1=0.45 length=0.005433 units=km normamps=203.0
new line.53037636 phases=3 bus1=81762895002148.1.2.3 bus2=81759975002148.1.2.3 r1=1.551 x1=0.49 length=0.039471 units=km normamps=114.0
new line.53037637 phases=3 bus1=81762905002148.1.2.3 bus2=81762895002148.1.2.3 r1=1.551 x1=0.49 length=0.040748 units=km normamps=114.0
new line.53037638 phases=3 bus1=81758275002148.1.2.3 bus2=81757995002148.1.2.3 r1=0.613 x1=0.45 length=0.012031 units=km normamps=203.0
new line.53037649 phases=3 bus1=81762965002148.1.2.3 bus2=81762955002148.1.2.3 r1=0.975 x1=0.47 length=0.011959 units=km normamps=152.0
new line.53037650 phases=3 bus1=81762955002148.1.2.3 bus2=81762975002148.1.2.3 r1=0.975 x1=0.47 length=0.019103 units=km normamps=152.0
new line.53037651 phases=3 bus1=81760045002148.1.2.3 bus2=81762965002148.1.2.3 r1=0.975 x1=0.47 length=0.027816 units=km normamps=152.0
new line.53037652 phases=3 bus1=81762975002148.1.2.3 bus2=81762985002148.1.2.3 r1=0.975 x1=0.47 length=0.032336 units=km normamps=152.0
new line.53037653 phases=3 bus1=81762985002148.1.2.3 bus2=81762995002148.1.2.3 r1=0.975 x1=0.47 length=0.028795 units=km normamps=152.0
new line.53037654 phases=3 bus1=81762995002148.1.2.3 bus2=81763005002148.1.2.3 r1=0.975 x1=0.47 length=0.020374 units=km normamps=152.0
new line.53037655 phases=3 bus1=81762955002148.1.2.3 bus2=81763015002148.1.2.3 r1=1.551 x1=0.49 length=0.014889 units=km normamps=114.0
new line.53037656 phases=3 bus1=81763015002148.1.2.3 bus2=81763025002148.1.2.3 r1=1.551 x1=0.49 length=0.02827 units=km normamps=114.0
new line.53037657 phases=3 bus1=81763035002148.1.2.3 bus2=81763025002148.1.2.3 r1=1.551 x1=0.49 length=0.011431 units=km normamps=114.0
new line.53037658 phases=3 bus1=81763005002148.1.2.3 bus2=81763045002148.1.2.3 r1=0.975 x1=0.47 length=0.012648 units=km normamps=152.0
new line.53037659 phases=3 bus1=81763045002148.1.2.3 bus2=81763055002148B.1.2.3 r1=0.975 x1=0.47 length=0.04017 units=km normamps=152.0
new line.53037660 phases=3 bus1=81763055002148.1.2.3 bus2=81763065002148.1.2.3 r1=0.975 x1=0.47 length=0.012934 units=km normamps=152.0
new line.53037661 phases=3 bus1=81763085002148.1.2.3 bus2=81763075002148.1.2.3 r1=1.551 x1=0.49 length=0.023469 units=km normamps=114.0
new line.53037663 phases=3 bus1=81763145002148.1.2.3 bus2=91016785002148.1.2.3 r1=0.195 x1=0.4 length=0.008961 units=km normamps=419.0
new line.53037664 phases=3 bus1=81763155002148.1.2.3 bus2=81763145002148.1.2.3 r1=0.195 x1=0.4 length=0.033308 units=km normamps=419.0
new line.53037665 phases=3 bus1=81763165002148.1.2.3 bus2=81763155002148.1.2.3 r1=0.195 x1=0.4 length=0.036239 units=km normamps=419.0
new line.53037666 phases=3 bus1=81763065002148.1.2.3 bus2=81763165002148.1.2.3 r1=0.195 x1=0.4 length=0.020364 units=km normamps=419.0
new line.53037668 phases=3 bus1=81763185002148B.1.2.3 bus2=93688235002148.1.2.3 r1=0.195 x1=0.4 length=0.010669 units=km normamps=419.0
new line.53037670 phases=3 bus1=81763235002148.1.2.3 bus2=81763245002148B.1.2.3 r1=1.551 x1=0.49 length=0.03455 units=km normamps=114.0
new line.53037671 phases=3 bus1=81763245002148.1.2.3 bus2=81763255002148.1.2.3 r1=1.551 x1=0.49 length=0.015193 units=km normamps=114.0
new line.53037672 phases=3 bus1=81755645002148.1.2.3 bus2=81755635002148.1.2.3 r1=0.975 x1=0.47 length=0.048702 units=km normamps=152.0
new line.53037673 phases=3 bus1=81755655002148.1.2.3 bus2=81755645002148.1.2.3 r1=0.975 x1=0.47 length=0.050199 units=km normamps=152.0
new line.53037674 phases=3 bus1=81755665002148.1.2.3 bus2=90860185002148.1.2.3 r1=0.975 x1=0.47 length=0.024545 units=km normamps=152.0
new line.53037675 phases=3 bus1=81755685002148.1.2.3 bus2=94364425002148.1.2.3 r1=0.975 x1=0.46 length=0.031031 units=km normamps=160.0
new line.53037676 phases=3 bus1=81755695002148.1.2.3 bus2=89359905002148.1.2.3 r1=0.975 x1=0.46 length=0.016508 units=km normamps=160.0
new line.53037677 phases=3 bus1=81755705002148.1.2.3 bus2=81755695002148.1.2.3 r1=0.975 x1=0.46 length=0.038269 units=km normamps=160.0
new line.53037679 phases=3 bus1=81755635002148.1.2.3 bus2=81755815002148.1.2.3 r1=0.975 x1=0.47 length=0.034629 units=km normamps=152.0
new line.53037690 phases=3 bus1=81761365002148.1.2.3 bus2=81761355002148.1.2.3 r1=0.975 x1=0.47 length=0.026435 units=km normamps=152.0
new line.53037691 phases=3 bus1=81761375002148.1.2.3 bus2=81761365002148.1.2.3 r1=0.975 x1=0.47 length=0.009701 units=km normamps=152.0
new line.53037692 phases=3 bus1=81761385002148.1.2.3 bus2=81761375002148.1.2.3 r1=0.975 x1=0.47 length=0.0186 units=km normamps=152.0
new line.53037693 phases=3 bus1=81761905002148.1.2.3 bus2=81761895002148.1.2.3 r1=1.551 x1=0.49 length=0.048504 units=km normamps=114.0
new line.53037694 phases=3 bus1=81761915002148.1.2.3 bus2=81761905002148.1.2.3 r1=1.551 x1=0.49 length=0.004919 units=km normamps=114.0
new line.53037695 phases=3 bus1=81761925002148.1.2.3 bus2=81761905002148.1.2.3 r1=1.551 x1=0.49 length=0.024584 units=km normamps=114.0
new line.53037696 phases=3 bus1=81761935002148.1.2.3 bus2=81761925002148.1.2.3 r1=1.551 x1=0.49 length=0.019402 units=km normamps=114.0
new line.53037697 phases=3 bus1=81761945002148.1.2.3 bus2=81761935002148.1.2.3 r1=1.551 x1=0.49 length=0.026026 units=km normamps=114.0
new line.53037698 phases=3 bus1=81761985002148.1.2.3 bus2=81761975002148.1.2.3 r1=1.551 x1=0.49 length=0.025952 units=km normamps=114.0
new line.53037699 phases=3 bus1=81759615002148.1.2.3 bus2=81761895002148.1.2.3 r1=1.551 x1=0.49 length=0.02433 units=km normamps=114.0
new line.53037700 phases=3 bus1=81759625002148.1.2.3 bus2=81759615002148.1.2.3 r1=1.551 x1=0.49 length=0.02074 units=km normamps=114.0
new line.53037701 phases=3 bus1=81759635002148.1.2.3 bus2=81759625002148.1.2.3 r1=1.551 x1=0.49 length=0.010494 units=km normamps=114.0
new line.53037716 phases=3 bus1=81763305002148.1.2.3 bus2=81762905002148.1.2.3 r1=1.551 x1=0.49 length=0.039653 units=km normamps=114.0
new line.53037717 phases=3 bus1=81763315002148B.1.2.3 bus2=97865855002148.1.2.3 r1=1.551 x1=0.49 length=0.017138 units=km normamps=114.0
new line.53037718 phases=3 bus1=81763325002148.1.2.3 bus2=81763315002148.1.2.3 r1=1.551 x1=0.49 length=0.011388 units=km normamps=114.0
new line.53037719 phases=3 bus1=81763255002148.1.2.3 bus2=81763365002148.1.2.3 r1=0.195 x1=0.4 length=0.019505 units=km normamps=419.0
new line.53037720 phases=3 bus1=81763365002148.1.2.3 bus2=81763375002148.1.2.3 r1=0.195 x1=0.4 length=0.031618 units=km normamps=419.0
new line.53037721 phases=3 bus1=81763375002148.1.2.3 bus2=81763385002148.1.2.3 r1=0.195 x1=0.4 length=0.031066 units=km normamps=419.0
new line.53037722 phases=3 bus1=81763385002148.1.2.3 bus2=94400725002148.1.2.3 r1=0.195 x1=0.4 length=0.01891 units=km normamps=419.0
new line.53037723 phases=3 bus1=81763395002148B.1.2.3 bus2=94400715002148.1.2.3 r1=0.195 x1=0.4 length=0.009733 units=km normamps=419.0
new line.53037724 phases=3 bus1=81763325002148.1.2.3 bus2=81763405002148.1.2.3 r1=0.195 x1=0.4 length=0.024304 units=km normamps=419.0
new line.53037725 phases=3 bus1=81763405002148.1.2.3 bus2=81763415002148.1.2.3 r1=0.195 x1=0.4 length=0.035961 units=km normamps=419.0
new line.53037726 phases=3 bus1=81763415002148.1.2.3 bus2=81763425002148.1.2.3 r1=0.195 x1=0.4 length=0.039471 units=km normamps=419.0
new line.53037727 phases=3 bus1=81763425002148.1.2.3 bus2=81763065002148.1.2.3 r1=0.195 x1=0.4 length=0.025564 units=km normamps=419.0
new line.53037728 phases=3 bus1=81763065002148.1.2.3 bus2=81763435002148.1.2.3 r1=0.975 x1=0.47 length=0.016334 units=km normamps=152.0
new line.53037729 phases=3 bus1=81763485002148.1.2.3 bus2=81763195002148.1.2.3 r1=0.195 x1=0.4 length=0.016863 units=km normamps=419.0
new line.53037730 phases=3 bus1=81763495002148.1.2.3 bus2=81763485002148.1.2.3 r1=0.195 x1=0.4 length=0.033005 units=km normamps=419.0
new line.53037731 phases=3 bus1=81763505002148.1.2.3 bus2=81763195002148.1.2.3 r1=0.195 x1=0.4 length=0.022017 units=km normamps=419.0
new line.53037732 phases=3 bus1=81763515002148.1.2.3 bus2=81763505002148B.1.2.3 r1=0.975 x1=0.47 length=0.037129 units=km normamps=152.0
new line.53037733 phases=3 bus1=81763525002148.1.2.3 bus2=81763515002148.1.2.3 r1=0.975 x1=0.47 length=0.025031 units=km normamps=152.0
new line.53037734 phases=3 bus1=81763535002148.1.2.3 bus2=81763525002148.1.2.3 r1=0.975 x1=0.47 length=0.020664 units=km normamps=152.0
new line.53037735 phases=3 bus1=81763195002148.1.2.3 bus2=81763555002148.1.2.3 r1=0.195 x1=0.4 length=0.011755 units=km normamps=419.0
new line.53037736 phases=3 bus1=81763555002148.1.2.3 bus2=94536715002148.1.2.3 r1=0.195 x1=0.4 length=0.014599 units=km normamps=419.0
new line.53037737 phases=3 bus1=81763575002148B.1.2.3 bus2=93628045002148.1.2.3 r1=0.195 x1=0.4 length=0.011444 units=km normamps=419.0
new line.53037738 phases=3 bus1=81763585002148.1.2.3 bus2=81763595002148.1.2.3 r1=0.195 x1=0.4 length=0.024584 units=km normamps=419.0
new line.53037739 phases=3 bus1=81763595002148.1.2.3 bus2=81763255002148.1.2.3 r1=0.195 x1=0.4 length=0.030752 units=km normamps=419.0
new line.53037740 phases=3 bus1=81763605002148.1.2.3 bus2=81763255002148.1.2.3 r1=1.551 x1=0.49 length=0.025612 units=km normamps=114.0
new line.53037741 phases=3 bus1=81763615002148.1.2.3 bus2=81763605002148.1.2.3 r1=0.613 x1=0.45 length=0.038577 units=km normamps=203.0
new line.53037742 phases=3 bus1=81764625002148.1.2.3 bus2=81763615002148.1.2.3 r1=0.613 x1=0.45 length=0.017564 units=km normamps=203.0
new line.53037743 phases=3 bus1=81764635002148.1.2.3 bus2=89728295002148.1.2.3 r1=0.613 x1=0.45 length=0.017222 units=km normamps=203.0
new line.53037773 phases=3 bus1=81759975002148.1.2.3 bus2=81759445002148.1.2.3 r1=1.551 x1=0.49 length=0.049158 units=km normamps=114.0
new line.53037774 phases=3 bus1=81759445002148.1.2.3 bus2=81759985002148.1.2.3 r1=1.551 x1=0.49 length=0.033991 units=km normamps=114.0
new line.53037775 phases=3 bus1=81759985002148.1.2.3 bus2=81759995002148.1.2.3 r1=1.551 x1=0.49 length=0.041725 units=km normamps=114.0
new line.53037776 phases=3 bus1=81764645002148.1.2.3 bus2=81764635002148.1.2.3 r1=0.613 x1=0.45 length=0.037387 units=km normamps=203.0
new line.53037777 phases=3 bus1=81764655002148.1.2.3 bus2=81764645002148.1.2.3 r1=0.613 x1=0.45 length=0.032682 units=km normamps=203.0
new line.53037778 phases=3 bus1=81764665002148.1.2.3 bus2=81764655002148.1.2.3 r1=0.613 x1=0.45 length=0.02619 units=km normamps=203.0
new line.53037779 phases=3 bus1=81758195002148.1.2.3 bus2=81764665002148.1.2.3 r1=0.613 x1=0.45 length=0.009647 units=km normamps=203.0
new line.53037780 phases=3 bus1=81764665002148.1.2.3 bus2=81759855002148.1.2.3 r1=0.975 x1=0.47 length=0.007946 units=km normamps=152.0
new line.53037781 phases=3 bus1=81764675002148.1.2.3 bus2=81764665002148.1.2.3 r1=0.975 x1=0.47 length=0.023363 units=km normamps=152.0
new line.53037783 phases=3 bus1=81764695002148.1.2.3 bus2=87956025002148.1.2.3 r1=0.975 x1=0.47 length=0.020276 units=km normamps=152.0
new line.53037784 phases=3 bus1=81764705002148.1.2.3 bus2=81764695002148.1.2.3 r1=0.975 x1=0.47 length=0.018855 units=km normamps=152.0
new line.53037785 phases=3 bus1=81764715002148.1.2.3 bus2=81764705002148.1.2.3 r1=0.975 x1=0.47 length=0.018206 units=km normamps=152.0
new line.53037786 phases=3 bus1=81764725002148.1.2.3 bus2=81764715002148.1.2.3 r1=1.551 x1=0.49 length=0.034601 units=km normamps=114.0
new line.53037787 phases=3 bus1=81764775002148.1.2.3 bus2=81763325002148.1.2.3 r1=1.551 x1=0.49 length=0.023935 units=km normamps=114.0
new line.53037788 phases=3 bus1=81764835002148.1.2.3 bus2=81764725002148.1.2.3 r1=1.551 x1=0.49 length=0.03211 units=km normamps=114.0
new line.53037789 phases=3 bus1=81764845002148.1.2.3 bus2=81764715002148.1.2.3 r1=0.975 x1=0.47 length=0.01812 units=km normamps=152.0
new line.53037790 phases=3 bus1=81764855002148.1.2.3 bus2=81764845002148.1.2.3 r1=0.975 x1=0.47 length=0.007608 units=km normamps=152.0
new line.53037791 phases=3 bus1=81764865002148.1.2.3 bus2=81764705002148.1.2.3 r1=0.975 x1=0.47 length=0.017473 units=km normamps=152.0
new line.53037792 phases=3 bus1=81764875002148.1.2.3 bus2=81764865002148.1.2.3 r1=0.975 x1=0.47 length=0.007608 units=km normamps=152.0
new line.53037793 phases=3 bus1=81764885002148.1.2.3 bus2=81764695002148.1.2.3 r1=0.975 x1=0.47 length=0.019402 units=km normamps=152.0
new line.53037794 phases=3 bus1=81764895002148.1.2.3 bus2=81764885002148.1.2.3 r1=0.975 x1=0.47 length=0.006634 units=km normamps=152.0
new line.53037795 phases=3 bus1=81764905002148.1.2.3 bus2=81764625002148.1.2.3 r1=0.613 x1=0.45 length=0.013467 units=km normamps=203.0
new line.53037833 phases=3 bus1=81760035002148.1.2.3 bus2=81760045002148.1.2.3 r1=0.975 x1=0.47 length=0.026841 units=km normamps=152.0
new line.53037834 phases=3 bus1=81760055002148.1.2.3 bus2=81760035002148.1.2.3 r1=0.975 x1=0.47 length=0.008109 units=km normamps=152.0
new line.53037835 phases=3 bus1=81759995002148.1.2.3 bus2=81760125002148.1.2.3 r1=1.551 x1=0.49 length=0.040606 units=km normamps=114.0
new line.53037846 phases=3 bus1=81760515002148.1.2.3 bus2=91444735002148.1.2.3 r1=0.613 x1=0.45 length=0.022598 units=km normamps=203.0
new line.53037847 phases=3 bus1=81760525002148.1.2.3 bus2=81760515002148.1.2.3 r1=0.613 x1=0.45 length=0.051459 units=km normamps=203.0
new line.53037848 phases=3 bus1=81757935002148.1.2.3 bus2=81760515002148.1.2.3 r1=0.975 x1=0.47 length=0.081854 units=km normamps=152.0
new line.53037861 phases=3 bus1=81760535002148.1.2.3 bus2=81760525002148.1.2.3 r1=0.613 x1=0.45 length=0.039468 units=km normamps=203.0
new line.53037862 phases=3 bus1=81760545002148.1.2.3 bus2=81760535002148.1.2.3 r1=0.613 x1=0.45 length=0.032925 units=km normamps=203.0
new line.53037863 phases=3 bus1=81760555002148.1.2.3 bus2=81760545002148.1.2.3 r1=0.613 x1=0.45 length=0.050614 units=km normamps=203.0
new line.53037864 phases=3 bus1=81760565002148.1.2.3 bus2=81760555002148.1.2.3 r1=0.613 x1=0.45 length=0.032855 units=km normamps=203.0
new line.53037865 phases=3 bus1=81760615002148.1.2.3 bus2=81760625002148.1.2.3 r1=0.613 x1=0.45 length=0.010265 units=km normamps=203.0
new line.53037866 phases=3 bus1=81760625002148.1.2.3 bus2=81760565002148.1.2.3 r1=0.613 x1=0.45 length=0.029672 units=km normamps=203.0
new line.53037867 phases=3 bus1=81760645002148.1.2.3 bus2=81760635002148.1.2.3 r1=1.551 x1=0.49 length=0.022673 units=km normamps=114.0
new line.53037868 phases=3 bus1=81760635002148.1.2.3 bus2=81760625002148.1.2.3 r1=1.551 x1=0.49 length=0.011274 units=km normamps=114.0
new line.53037869 phases=3 bus1=81760655002148.1.2.3 bus2=81760645002148.1.2.3 r1=1.551 x1=0.49 length=0.04107 units=km normamps=114.0
...

! 3. Chaves Seccionadoras MT
new line.SC_5284310 phases=3 bus1=81763185002148.1.2.3 bus2=81763185002148B.1.2.3 switch=y r1=1e-4 x1=1e-4 length=0.001 units=km
new line.SC_5284313 phases=3 bus1=80439955002148.1.2.3 bus2=80439955002148B.1.2.3 switch=y r1=1e-4 x1=1e-4 length=0.001 units=km
new line.SC_5284361 phases=3 bus1=80433905002148.1.2.3 bus2=80433905002148B.1.2.3 switch=y r1=1e-4 x1=1e-4 length=0.001 units=km
new line.SC_5284373 phases=3 bus1=81763055002148.1.2.3 bus2=81763055002148B.1.2.3 switch=y r1=1e-4 x1=1e-4 length=0.001 units=km
new line.SC_5284376 phases=3 bus1=81758025002148.1.2.3 bus2=81758025002148B.1.2.3 switch=y r1=1e-4 x1=1e-4 length=0.001 units=km
new line.SC_5284385 phases=3 bus1=81763245002148.1.2.3 bus2=81763245002148B.1.2.3 switch=y r1=1e-4 x1=1e-4 length=0.001 units=km
new line.SC_5284387 phases=3 bus1=81763505002148.1.2.3 bus2=81763505002148B.1.2.3 switch=y r1=1e-4 x1=1e-4 length=0.001 units=km
new line.SC_5284389 phases=3 bus1=81757535002148.1.2.3 bus2=81757535002148B.1.2.3 switch=y r1=1e-4 x1=1e-4 length=0.001 units=km
new line.SC_5284391 phases=3 bus1=81757765002148.1.2.3 bus2=81757765002148B.1.2.3 switch=y r1=1e-4 x1=1e-4 length=0.001 units=km
new line.SC_5284396 phases=3 bus1=81765715002148.1.2.3 bus2=81765715002148B.1.2.3 switch=y r1=1e-4 x1=1e-4 length=0.001 units=km
new line.SC_5284397 phases=3 bus1=81765695002148.1.2.3 bus2=81765695002148B.1.2.3 switch=y r1=1e-4 x1=1e-4 length=0.001 units=km
new line.SC_5284398 phases=3 bus1=81765665002148.1.2.3 bus2=81765665002148B.1.2.3 switch=y r1=1e-4 x1=1e-4 length=0.001 units=km
new line.SC_5284411 phases=3 bus1=81767115002148.1.2.3 bus2=81767115002148B.1.2.3 switch=y r1=1e-4 x1=1e-4 length=0.001 units=km
new line.SC_5284418 phases=3 bus1=81765045002148.1.2.3 bus2=81765045002148B.1.2.3 switch=y r1=1e-4 x1=1e-4 length=0.001 units=km
new line.SC_5284419 phases=3 bus1=81765025002148.1.2.3 bus2=81765025002148B.1.2.3 switch=y r1=1e-4 x1=1e-4 length=0.001 units=km
new line.SC_5291489 phases=3 bus1=81766775002148.1.2.3 bus2=81766775002148B.1.2.3 switch=y r1=1e-4 x1=1e-4 length=0.001 units=km
new line.SC_5291562 phases=3 bus1=82577025002148.1.2.3 bus2=82577025002148B.1.2.3 switch=y r1=1e-4 x1=1e-4 length=0.001 units=km
new line.SC_5297517 phases=3 bus1=81754805002148.1.2.3 bus2=81754805002148B.1.2.3 switch=y r1=1e-4 x1=1e-4 length=0.001 units=km
new line.SC_5297520 phases=3 bus1=81754885002148.1.2.3 bus2=81754885002148B.1.2.3 switch=y r1=1e-4 x1=1e-4 length=0.001 units=km
new line.SC_5297568 phases=3 bus1=81761595002148.1.2.3 bus2=81761595002148B.1.2.3 switch=y r1=1e-4 x1=1e-4 length=0.001 units=km
new line.SC_5298177 phases=3 bus1=82577075002148.1.2.3 bus2=82577075002148B.1.2.3 switch=y r1=1e-4 x1=1e-4 length=0.001 units=km
new line.SC_5300640 phases=3 bus1=80433605002148.1.2.3 bus2=80433605002148B.1.2.3 switch=y r1=1e-4 x1=1e-4 length=0.001 units=km
new line.SC_5475116 phases=3 bus1=81755725002148.1.2.3 bus2=81755725002148B.1.2.3 switch=y r1=1e-4 x1=1e-4 length=0.001 units=km
new line.SC_5506840 phases=3 bus1=88061495002148.1.2.3 bus2=88061495002148B.1.2.3 switch=y r1=1e-4 x1=1e-4 length=0.001 units=km
new line.SC_5580101 phases=3 bus1=91888165002148.1.2.3 bus2=91888165002148B.1.2.3 switch=y r1=1e-4 x1=1e-4 length=0.001 units=km
open line.SC_5580101 1
new line.SC_5580103 phases=3 bus1=81766535002148.1.2.3 bus2=81766535002148B.1.2.3 switch=y r1=1e-4 x1=1e-4 length=0.001 units=km
new line.SC_5580106 phases=3 bus1=91010255002148.1.2.3 bus2=91010255002148B.1.2.3 switch=y r1=1e-4 x1=1e-4 length=0.001 units=km
new line.SC_5580107 phases=3 bus1=93455605002148.1.2.3 bus2=93455605002148B.1.2.3 switch=y r1=1e-4 x1=1e-4 length=0.001 units=km
new line.SC_5580339 phases=3 bus1=81763135002148.1.2.3 bus2=81763135002148B.1.2.3 switch=y r1=1e-4 x1=1e-4 length=0.001 units=km
open line.SC_5580339 1
new line.SC_5580341 phases=3 bus1=91888185002148.1.2.3 bus2=91888185002148B.1.2.3 switch=y r1=1e-4 x1=1e-4 length=0.001 units=km
new line.SC_5580342 phases=3 bus1=91016795002148.1.2.3 bus2=91016795002148B.1.2.3 switch=y r1=1e-4 x1=1e-4 length=0.001 units=km
open line.SC_5580342 1
new line.SC_5581499 phases=3 bus1=81754795002148.1.2.3 bus2=81754795002148B.1.2.3 switch=y r1=1e-4 x1=1e-4 length=0.001 units=km
new line.SC_5581500 phases=3 bus1=91032825002148.1.2.3 bus2=91032825002148B.1.2.3 switch=y r1=1e-4 x1=1e-4 length=0.001 units=km
new line.SC_5581501 phases=3 bus1=91032835002148.1.2.3 bus2=91032835002148B.1.2.3 switch=y r1=1e-4 x1=1e-4 length=0.001 units=km
new line.SC_5581502 phases=3 bus1=91032845002148.1.2.3 bus2=91032845002148B.1.2.3 switch=y r1=1e-4 x1=1e-4 length=0.001 units=km
open line.SC_5581502 1
new line.SC_5652144 phases=3 bus1=81754525002148.1.2.3 bus2=81754525002148B.1.2.3 switch=y r1=1e-4 x1=1e-4 length=0.001 units=km
new line.SC_5664606 phases=3 bus1=81763575002148.1.2.3 bus2=81763575002148B.1.2.3 switch=y r1=1e-4 x1=1e-4 length=0.001 units=km
new line.SC_5664699 phases=3 bus1=93628085002148.1.2.3 bus2=93628085002148B.1.2.3 switch=y r1=1e-4 x1=1e-4 length=0.001 units=km
open line.SC_5664699 1
new line.SC_5667354 phases=3 bus1=93688395002148.1.2.3 bus2=93688395002148B.1.2.3 switch=y r1=1e-4 x1=1e-4 length=0.001 units=km
open line.SC_5667354 1
new line.SC_5667355 phases=3 bus1=93688215002148.1.2.3 bus2=93688215002148B.1.2.3 switch=y r1=1e-4 x1=1e-4 length=0.001 units=km
open line.SC_5667355 1
new line.SC_5678897 phases=3 bus1=94086995002148.1.2.3 bus2=94086995002148B.1.2.3 switch=y r1=1e-4 x1=1e-4 length=0.001 units=km
open line.SC_5678897 1
new line.SC_5678898 phases=3 bus1=94086945002148.1.2.3 bus2=94086945002148B.1.2.3 switch=y r1=1e-4 x1=1e-4 length=0.001 units=km
new line.SC_5690600 phases=3 bus1=94364605002148.1.2.3 bus2=94364605002148B.1.2.3 switch=y r1=1e-4 x1=1e-4 length=0.001 units=km
open line.SC_5690600 1
new line.SC_5690610 phases=3 bus1=81755675002148.1.2.3 bus2=81755675002148B.1.2.3 switch=y r1=1e-4 x1=1e-4 length=0.001 units=km
new line.SC_5690611 phases=3 bus1=94364465002148.1.2.3 bus2=94364465002148B.1.2.3 switch=y r1=1e-4 x1=1e-4 length=0.001 units=km
open line.SC_5690611 1
new line.SC_5690613 phases=3 bus1=94364565002148.1.2.3 bus2=94364565002148B.1.2.3 switch=y r1=1e-4 x1=1e-4 length=0.001 units=km
new line.SC_5691695 phases=3 bus1=94387185002148.1.2.3 bus2=94387185002148B.1.2.3 switch=y r1=1e-4 x1=1e-4 length=0.001 units=km
new line.SC_5691696 phases=3 bus1=94387205002148.1.2.3 bus2=94387205002148B.1.2.3 switch=y r1=1e-4 x1=1e-4 length=0.001 units=km
open line.SC_5691696 1
new line.SC_5692538 phases=3 bus1=81763395002148.1.2.3 bus2=81763395002148B.1.2.3 switch=y r1=1e-4 x1=1e-4 length=0.001 units=km
new line.SC_5692539 phases=3 bus1=94400745002148.1.2.3 bus2=94400745002148B.1.2.3 switch=y r1=1e-4 x1=1e-4 length=0.001 units=km
open line.SC_5692539 1
new line.SC_5717318 phases=3 bus1=94991825002148.1.2.3 bus2=94991825002148B.1.2.3 switch=y r1=1e-4 x1=1e-4 length=0.001 units=km
open line.SC_5717318 1
new line.SC_5717341 phases=3 bus1=94991695002148.1.2.3 bus2=94991695002148B.1.2.3 switch=y r1=1e-4 x1=1e-4 length=0.001 units=km
open line.SC_5717341 1
new line.SC_5720243 phases=3 bus1=95176115002148.1.2.3 bus2=95176115002148B.1.2.3 switch=y r1=1e-4 x1=1e-4 length=0.001 units=km
new line.SC_5720255 phases=3 bus1=95176285002148.1.2.3 bus2=95176285002148B.1.2.3 switch=y r1=1e-4 x1=1e-4 length=0.001 units=km
open line.SC_5720255 1
new line.SC_5724774 phases=3 bus1=81757525002148.1.2.3 bus2=81757525002148B.1.2.3 switch=y r1=1e-4 x1=1e-4 length=0.001 units=km
new line.SC_5725493 phases=3 bus1=95428775002148.1.2.3 bus2=95428775002148B.1.2.3 switch=y r1=1e-4 x1=1e-4 length=0.001 units=km
new line.SC_5725494 phases=3 bus1=95428815002148.1.2.3 bus2=95428815002148B.1.2.3 switch=y r1=1e-4 x1=1e-4 length=0.001 units=km
open line.SC_5725494 1
new line.SC_5728798 phases=3 bus1=95529335002148.1.2.3 bus2=95529335002148B.1.2.3 switch=y r1=1e-4 x1=1e-4 length=0.001 units=km
open line.SC_5728798 1
new line.SC_5728799 phases=3 bus1=95529375002148.1.2.3 bus2=95529375002148B.1.2.3 switch=y r1=1e-4 x1=1e-4 length=0.001 units=km
open line.SC_5728799 1
new line.SC_5743291 phases=3 bus1=96162785002148.1.2.3 bus2=96162785002148B.1.2.3 switch=y r1=1e-4 x1=1e-4 length=0.001 units=km
open line.SC_5743291 1
new line.SC_5745584 phases=3 bus1=80553895002148.1.2.3 bus2=80553895002148B.1.2.3 switch=y r1=1e-4 x1=1e-4 length=0.001 units=km
open line.SC_5745584 1
new line.SC_5756267 phases=3 bus1=96895345002148.1.2.3 bus2=96895345002148B.1.2.3 switch=y r1=1e-4 x1=1e-4 length=0.001 units=km
open line.SC_5756267 1
new line.SC_5782407 phases=3 bus1=97865875002148.1.2.3 bus2=97865875002148B.1.2.3 switch=y r1=1e-4 x1=1e-4 length=0.001 units=km
open line.SC_5782407 1
new line.SC_5782408 phases=3 bus1=97865835002148.1.2.3 bus2=97865835002148B.1.2.3 switch=y r1=1e-4 x1=1e-4 length=0.001 units=km
new line.SC_5791745 phases=3 bus1=81765415002148.1.2.3 bus2=81765415002148B.1.2.3 switch=y r1=1e-4 x1=1e-4 length=0.001 units=km
new line.SC_DA0007958 phases=3 bus1=I888888103415002148.1.2.3 bus2=I888888103415002148B.1.2.3 switch=y r1=1e-4 x1=1e-4 length=0.001 units=km
new line.SC_SA0002780 phases=3 bus1=SA0002780.1.2.3 bus2=SA0002780B.1.2.3 switch=y r1=1e-4 x1=1e-4 length=0.001 units=km
new line.SC_SA0002803 phases=3 bus1=SA0002803.1.2.3 bus2=SA0002803B.1.2.3 switch=y r1=1e-4 x1=1e-4 length=0.001 units=km
new line.SC_SA0002804 phases=3 bus1=SA0002804.1.2.3 bus2=SA0002804B.1.2.3 switch=y r1=1e-4 x1=1e-4 length=0.001 units=km
new line.SC_5809729 phases=3 bus1=81763435002148.1.2.3 bus2=81763435002148B.1.2.3 switch=y r1=1e-4 x1=1e-4 length=0.001 units=km
new line.SC_5817272 phases=3 bus1=81763315002148.1.2.3 bus2=81763315002148B.1.2.3 switch=y r1=1e-4 x1=1e-4 length=0.001 units=km
new line.SC_SA0002775 phases=3 bus1=I888888313905002148.1.2.3 bus2=I888888313905002148B.1.2.3 switch=y r1=1e-4 x1=1e-4 length=0.001 units=km
new line.SC_SA0002779 phases=3 bus1=I888888315855002148.1.2.3 bus2=I888888315855002148B.1.2.3 switch=y r1=1e-4 x1=1e-4 length=0.001 units=km

! 4. Bancos de Capacitores MT
new capacitor.BA0000021 phases=3 bus1=INT114925002148.1.2.3 conn=wye kv=13.8 kvar=1800.0
new capacitor.BA0000022 phases=3 bus1=INT114925002148.1.2.3 conn=wye kv=13.8 kvar=1800.0
new capacitor.BA0000023 phases=3 bus1=INT114925002148.1.2.3 conn=wye kv=13.8 kvar=1800.0

! 5. Transformadores MT/BT de Distribuicao
new transformer.UNTRMT_5284323 phases=3 windings=2 %r=1.46 xhl=3.18 kva=112.0
~ wdg=1 bus=81754815002148.1.2.3 conn=delta kv=13.8
~ wdg=2 bus=81754815284323.1.2.3.0 conn=wye kv=0.38

new transformer.UNTRMT_5284334 phases=3 windings=2 %r=1.15 xhl=5.89 kva=500.0
~ wdg=1 bus=81764905002148.1.2.3 conn=delta kv=13.8
~ wdg=2 bus=81764905284334.1.2.3.0 conn=wye kv=0.38

new transformer.UNTRMT_5284335 phases=3 windings=2 %r=1.25 xhl=4.32 kva=300.0
~ wdg=1 bus=81758145002148.1.2.3 conn=delta kv=13.8
~ wdg=2 bus=81758145284335.1.2.3.0 conn=wye kv=0.38

new transformer.UNTRMT_5284337 phases=3 windings=2 %r=1.3 xhl=4.31 kva=225.0
~ wdg=1 bus=81758275002148.1.2.3 conn=delta kv=13.8
~ wdg=2 bus=81758275284337.1.2.3.0 conn=wye kv=0.38

new transformer.UNTRMT_5284346 phases=3 windings=2 %r=1.39 xhl=3.21 kva=150.0
~ wdg=1 bus=81761645002148.1.2.3 conn=delta kv=13.8
~ wdg=2 bus=81761645284346.1.2.3.0 conn=wye kv=0.38

new transformer.UNTRMT_5284347 phases=3 windings=2 %r=1.39 xhl=3.21 kva=150.0
~ wdg=1 bus=81761655002148.1.2.3 conn=delta kv=13.8
~ wdg=2 bus=81761655284347.1.2.3.0 conn=wye kv=0.38

new transformer.UNTRMT_5284349 phases=3 windings=2 %r=1.39 xhl=3.21 kva=112.0
~ wdg=1 bus=81767605002148.1.2.3 conn=delta kv=13.8
~ wdg=2 bus=81767605284349.1.2.3.0 conn=wye kv=0.38

new transformer.UNTRMT_5284350 phases=3 windings=2 %r=1.46 xhl=3.18 kva=112.0
~ wdg=1 bus=81767675002148.1.2.3 conn=delta kv=13.8
~ wdg=2 bus=81767675284350.1.2.3.0 conn=wye kv=0.38

new transformer.UNTRMT_5284352 phases=3 windings=2 %r=1.68 xhl=3.07 kva=45.0
~ wdg=1 bus=81761915002148.1.2.3 conn=delta kv=13.8
~ wdg=2 bus=81761915284352.1.2.3.0 conn=wye kv=0.38

new transformer.UNTRMT_5284355 phases=3 windings=2 %r=1.68 xhl=3.07 kva=112.0
~ wdg=1 bus=81767025002148.1.2.3 conn=delta kv=13.8
~ wdg=2 bus=81767025284355.1.2.3.0 conn=wye kv=0.38

new transformer.UNTRMT_5284356 phases=3 windings=2 %r=1.39 xhl=3.21 kva=112.0
~ wdg=1 bus=81767035002148.1.2.3 conn=delta kv=13.8
~ wdg=2 bus=81767035284356.1.2.3.0 conn=wye kv=0.38

new transformer.UNTRMT_5284428 phases=3 windings=2 %r=1.68 xhl=3.07 kva=45.0
~ wdg=1 bus=81754825002148.1.2.3 conn=delta kv=13.8
~ wdg=2 bus=81754825284428.1.2.3.0 conn=wye kv=0.38

new transformer.UNTRMT_5284430 phases=3 windings=2 %r=1.46 xhl=3.18 kva=112.0
~ wdg=1 bus=81755305002148.1.2.3 conn=delta kv=13.8
~ wdg=2 bus=81755305284430.1.2.3.0 conn=wye kv=0.38

new transformer.UNTRMT_5284448 phases=3 windings=2 %r=1.46 xhl=3.18 kva=112.0
~ wdg=1 bus=81762965002148.1.2.3 conn=delta kv=13.8
~ wdg=2 bus=81762965284448.1.2.3.0 conn=wye kv=0.38

new transformer.UNTRMT_5284449 phases=3 windings=2 %r=1.68 xhl=3.07 kva=45.0
~ wdg=1 bus=81763085002148.1.2.3 conn=delta kv=13.8
~ wdg=2 bus=81763085284449.1.2.3.0 conn=wye kv=0.38

new transformer.UNTRMT_5284450 phases=3 windings=2 %r=1.68 xhl=3.07 kva=45.0
~ wdg=1 bus=81764635002148.1.2.3 conn=delta kv=13.8
~ wdg=2 bus=81764635284450.1.2.3.0 conn=wye kv=0.38

new transformer.UNTRMT_5284451 phases=3 windings=2 %r=1.55 xhl=3.14 kva=75.0
~ wdg=1 bus=81764835002148.1.2.3 conn=delta kv=13.8
~ wdg=2 bus=81764835284451.1.2.3.0 conn=wye kv=0.38

new transformer.UNTRMT_5284452 phases=3 windings=2 %r=1.68 xhl=3.07 kva=45.0
~ wdg=1 bus=81764855002148.1.2.3 conn=delta kv=13.8
~ wdg=2 bus=81764855284452.1.2.3.0 conn=wye kv=0.38

new transformer.UNTRMT_5284453 phases=3 windings=2 %r=1.55 xhl=3.14 kva=75.0
~ wdg=1 bus=81764875002148.1.2.3 conn=delta kv=13.8
~ wdg=2 bus=81764875284453.1.2.3.0 conn=wye kv=0.38

new transformer.UNTRMT_5284454 phases=3 windings=2 %r=1.68 xhl=3.07 kva=45.0
~ wdg=1 bus=81764895002148.1.2.3 conn=delta kv=13.8
~ wdg=2 bus=81764895284454.1.2.3.0 conn=wye kv=0.38

new transformer.UNTRMT_5284455 phases=3 windings=2 %r=1.55 xhl=3.14 kva=75.0
~ wdg=1 bus=81758015002148.1.2.3 conn=delta kv=13.8
~ wdg=2 bus=81758015284455.1.2.3.0 conn=wye kv=0.38

new transformer.UNTRMT_5284456 phases=3 windings=2 %r=1.55 xhl=3.14 kva=75.0
~ wdg=1 bus=81758175002148.1.2.3 conn=delta kv=13.8
~ wdg=2 bus=81758175284456.1.2.3.0 conn=wye kv=0.38

new transformer.UNTRMT_5284457 phases=3 windings=2 %r=1.55 xhl=3.14 kva=75.0
~ wdg=1 bus=81760645002148.1.2.3 conn=delta kv=13.8
~ wdg=2 bus=81760645284457.1.2.3.0 conn=wye kv=0.38

new transformer.UNTRMT_5284458 phases=3 windings=2 %r=1.68 xhl=3.07 kva=45.0
~ wdg=1 bus=81755695002148.1.2.3 conn=delta kv=13.8
~ wdg=2 bus=81755695284458.1.2.3.0 conn=wye kv=0.38

new transformer.UNTRMT_5284459 phases=3 windings=2 %r=1.55 xhl=3.14 kva=75.0
~ wdg=1 bus=81755815002148.1.2.3 conn=delta kv=13.8
~ wdg=2 bus=81755815284459.1.2.3.0 conn=wye kv=0.38

new transformer.UNTRMT_5284469 phases=3 windings=2 %r=1.46 xhl=3.18 kva=112.0
~ wdg=1 bus=81759975002148.1.2.3 conn=delta kv=13.8
~ wdg=2 bus=81759975284469.1.2.3.0 conn=wye kv=0.38

new transformer.UNTRMT_5284470 phases=3 windings=2 %r=1.46 xhl=3.18 kva=112.0
~ wdg=1 bus=81760055002148.1.2.3 conn=delta kv=13.8
~ wdg=2 bus=81760055284470.1.2.3.0 conn=wye kv=0.38

new transformer.UNTRMT_5284471 phases=3 windings=2 %r=1.39 xhl=3.21 kva=150.0
~ wdg=1 bus=81760125002148.1.2.3 conn=delta kv=13.8
~ wdg=2 bus=81760125284471.1.2.3.0 conn=wye kv=0.38

new transformer.UNTRMT_5284474 phases=3 windings=2 %r=1.68 xhl=3.07 kva=45.0
~ wdg=1 bus=81763155002148.1.2.3 conn=delta kv=13.8
~ wdg=2 bus=81763155284474.1.2.3.0 conn=wye kv=0.38

new transformer.UNTRMT_5284476 phases=3 windings=2 %r=1.55 xhl=3.14 kva=75.0
~ wdg=1 bus=81763235002148.1.2.3 conn=delta kv=13.8
~ wdg=2 bus=81763235284476.1.2.3.0 conn=wye kv=0.38

new transformer.UNTRMT_5284477 phases=3 windings=2 %r=1.46 xhl=3.18 kva=112.0
~ wdg=1 bus=81763305002148.1.2.3 conn=delta kv=13.8
~ wdg=2 bus=81763305284477.1.2.3.0 conn=wye kv=0.38

new transformer.UNTRMT_5284478 phases=3 windings=2 %r=1.46 xhl=3.18 kva=112.0
~ wdg=1 bus=81763535002148.1.2.3 conn=delta kv=13.8
~ wdg=2 bus=81763535284478.1.2.3.0 conn=wye kv=0.38

new transformer.UNTRMT_5284479 phases=3 windings=2 %r=1.55 xhl=3.14 kva=75.0
~ wdg=1 bus=81757395002148.1.2.3 conn=delta kv=13.8
~ wdg=2 bus=81757395284479.1.2.3.0 conn=wye kv=0.38

new transformer.UNTRMT_5284480 phases=3 windings=2 %r=1.68 xhl=3.07 kva=45.0
~ wdg=1 bus=81757505002148.1.2.3 conn=delta kv=13.8
~ wdg=2 bus=81757505284480.1.2.3.0 conn=wye kv=0.38

new transformer.UNTRMT_5284481 phases=3 windings=2 %r=1.46 xhl=3.18 kva=112.0
~ wdg=1 bus=81757715002148.1.2.3 conn=delta kv=13.8
~ wdg=2 bus=81757715284481.1.2.3.0 conn=wye kv=0.38

new transformer.UNTRMT_5284482 phases=3 windings=2 %r=1.55 xhl=3.14 kva=75.0
~ wdg=1 bus=81757835002148.1.2.3 conn=delta kv=13.8
~ wdg=2 bus=81757835284482.1.2.3.0 conn=wye kv=0.38

new transformer.UNTRMT_5284483 phases=3 windings=2 %r=1.46 xhl=3.18 kva=112.0
~ wdg=1 bus=81757905002148.1.2.3 conn=delta kv=13.8
~ wdg=2 bus=81757905284483.1.2.3.0 conn=wye kv=0.38

new transformer.UNTRMT_5284484 phases=3 windings=2 %r=1.68 xhl=3.07 kva=45.0
~ wdg=1 bus=81760705002148.1.2.3 conn=delta kv=13.8
~ wdg=2 bus=81760705284484.1.2.3.0 conn=wye kv=0.38

new transformer.UNTRMT_5284485 phases=3 windings=2 %r=1.55 xhl=3.14 kva=75.0
~ wdg=1 bus=81760875002148.1.2.3 conn=delta kv=13.8
~ wdg=2 bus=81760875284485.1.2.3.0 conn=wye kv=0.38

new transformer.UNTRMT_5284490 phases=3 windings=2 %r=1.55 xhl=3.14 kva=75.0
~ wdg=1 bus=81766575002148.1.2.3 conn=delta kv=13.8
~ wdg=2 bus=81766575284490.1.2.3.0 conn=wye kv=0.38

new transformer.UNTRMT_5284491 phases=3 windings=2 %r=1.55 xhl=3.14 kva=75.0
~ wdg=1 bus=81766595002148.1.2.3 conn=delta kv=13.8
~ wdg=2 bus=81766595284491.1.2.3.0 conn=wye kv=0.38

new transformer.UNTRMT_5284492 phases=3 windings=2 %r=1.46 xhl=3.18 kva=112.0
~ wdg=1 bus=81765735002148.1.2.3 conn=delta kv=13.8
~ wdg=2 bus=81765735284492.1.2.3.0 conn=wye kv=0.38

new transformer.UNTRMT_5284493 phases=3 windings=2 %r=1.46 xhl=3.18 kva=112.0
~ wdg=1 bus=81759885002148.1.2.3 conn=delta kv=13.8
~ wdg=2 bus=81759885284493.1.2.3.0 conn=wye kv=0.38

new transformer.UNTRMT_5284494 phases=3 windings=2 %r=1.55 xhl=3.14 kva=75.0
~ wdg=1 bus=81759865002148.1.2.3 conn=delta kv=13.8
~ wdg=2 bus=81759865284494.1.2.3.0 conn=wye kv=0.38

new transformer.UNTRMT_5284495 phases=3 windings=2 %r=1.46 xhl=3.18 kva=112.0
~ wdg=1 bus=81767395002148.1.2.3 conn=delta kv=13.8
~ wdg=2 bus=81767395284495.1.2.3.0 conn=wye kv=0.38

new transformer.UNTRMT_5284496 phases=3 windings=2 %r=1.55 xhl=3.14 kva=75.0
~ wdg=1 bus=81761515002148.1.2.3 conn=delta kv=13.8
~ wdg=2 bus=81761515284496.1.2.3.0 conn=wye kv=0.38

new transformer.UNTRMT_5284497 phases=3 windings=2 %r=1.46 xhl=3.18 kva=112.0
~ wdg=1 bus=81761625002148.1.2.3 conn=delta kv=13.8
~ wdg=2 bus=81761625284497.1.2.3.0 conn=wye kv=0.38

new transformer.UNTRMT_5284498 phases=3 windings=2 %r=1.68 xhl=3.07 kva=45.0
~ wdg=1 bus=81766795002148.1.2.3 conn=delta kv=13.8
~ wdg=2 bus=81766795284498.1.2.3.0 conn=wye kv=0.38

new transformer.UNTRMT_5284499 phases=3 windings=2 %r=1.78 xhl=3.01 kva=30.0
~ wdg=1 bus=81767565002148.1.2.3 conn=delta kv=13.8
~ wdg=2 bus=81767565284499.1.2.3.0 conn=wye kv=0.38

new transformer.UNTRMT_5284500 phases=3 windings=2 %r=1.46 xhl=3.18 kva=112.0
~ wdg=1 bus=81765055002148.1.2.3 conn=delta kv=13.8
~ wdg=2 bus=81765055284500.1.2.3.0 conn=wye kv=0.38

new transformer.UNTRMT_5284501 phases=3 windings=2 %r=1.68 xhl=3.07 kva=45.0
~ wdg=1 bus=81765095002148.1.2.3 conn=delta kv=13.8
~ wdg=2 bus=81765095284501.1.2.3.0 conn=wye kv=0.38

new transformer.UNTRMT_5284502 phases=3 windings=2 %r=1.68 xhl=3.07 kva=45.0
~ wdg=1 bus=81767185002148.1.2.3 conn=delta kv=13.8
~ wdg=2 bus=81767185284502.1.2.3.0 conn=wye kv=0.38

new transformer.UNTRMT_5284506 phases=3 windings=2 %r=1.78 xhl=3.01 kva=30.0
~ wdg=1 bus=81765455002148.1.2.3 conn=delta kv=13.8
~ wdg=2 bus=81765455284506.1.2.3.0 conn=wye kv=0.38

new transformer.UNTRMT_5284507 phases=3 windings=2 %r=1.46 xhl=3.18 kva=112.0
~ wdg=1 bus=81766245002148.1.2.3 conn=delta kv=13.8
~ wdg=2 bus=81766245284507.1.2.3.0 conn=wye kv=0.38

new transformer.UNTRMT_5284508 phases=3 windings=2 %r=1.78 xhl=3.01 kva=30.0
~ wdg=1 bus=81766275002148.1.2.3 conn=delta kv=13.8
~ wdg=2 bus=81766275284508.1.2.3.0 conn=wye kv=0.38

new transformer.UNTRMT_5284509 phases=3 windings=2 %r=1.78 xhl=3.01 kva=30.0
~ wdg=1 bus=81766305002148.1.2.3 conn=delta kv=13.8
~ wdg=2 bus=81766305284509.1.2.3.0 conn=wye kv=0.38

new transformer.UNTRMT_5284511 phases=3 windings=2 %r=1.55 xhl=3.14 kva=75.0
~ wdg=1 bus=81761145002148.1.2.3 conn=delta kv=13.8
~ wdg=2 bus=81761145284511.1.2.3.0 conn=wye kv=0.38

new transformer.UNTRMT_5284512 phases=3 windings=2 %r=1.68 xhl=3.07 kva=45.0
~ wdg=1 bus=81761195002148.1.2.3 conn=delta kv=13.8
~ wdg=2 bus=81761195284512.1.2.3.0 conn=wye kv=0.38

new transformer.UNTRMT_5284513 phases=3 windings=2 %r=1.46 xhl=3.18 kva=112.0
~ wdg=1 bus=81761385002148.1.2.3 conn=delta kv=13.8
~ wdg=2 bus=81761385284513.1.2.3.0 conn=wye kv=0.38

new transformer.UNTRMT_5284514 phases=3 windings=2 %r=1.55 xhl=3.14 kva=75.0
~ wdg=1 bus=81761945002148.1.2.3 conn=delta kv=13.8
~ wdg=2 bus=81761945284514.1.2.3.0 conn=wye kv=0.38

new transformer.UNTRMT_5284515 phases=3 windings=2 %r=1.55 xhl=3.14 kva=75.0
~ wdg=1 bus=81761985002148.1.2.3 conn=delta kv=13.8
~ wdg=2 bus=81761985284515.1.2.3.0 conn=wye kv=0.38

new transformer.UNTRMT_5284516 phases=3 windings=2 %r=1.46 xhl=3.18 kva=112.0
~ wdg=1 bus=81761665002148.1.2.3 conn=delta kv=13.8
~ wdg=2 bus=81761665284516.1.2.3.0 conn=wye kv=0.38

new transformer.UNTRMT_5284517 phases=3 windings=2 %r=1.46 xhl=3.18 kva=112.0
~ wdg=1 bus=81761845002148.1.2.3 conn=delta kv=13.8
~ wdg=2 bus=81761845284517.1.2.3.0 conn=wye kv=0.38

new transformer.UNTRMT_5284518 phases=3 windings=2 %r=1.46 xhl=3.18 kva=112.0
~ wdg=1 bus=81767385002148.1.2.3 conn=delta kv=13.8
~ wdg=2 bus=81767385284518.1.2.3.0 conn=wye kv=0.38

new transformer.UNTRMT_5284519 phases=3 windings=2 %r=1.55 xhl=3.14 kva=75.0
~ wdg=1 bus=81765165002148.1.2.3 conn=delta kv=13.8
~ wdg=2 bus=81765165284519.1.2.3.0 conn=wye kv=0.38

new transformer.UNTRMT_5284520 phases=3 windings=2 %r=1.46 xhl=3.18 kva=112.0
~ wdg=1 bus=81765805002148.1.2.3 conn=delta kv=13.8
~ wdg=2 bus=81765805284520.1.2.3.0 conn=wye kv=0.38

new transformer.UNTRMT_5284521 phases=3 windings=2 %r=1.46 xhl=3.18 kva=112.0
~ wdg=1 bus=81766045002148.1.2.3 conn=delta kv=13.8
~ wdg=2 bus=81766045284521.1.2.3.0 conn=wye kv=0.38

new transformer.UNTRMT_5284522 phases=3 windings=2 %r=1.46 xhl=3.18 kva=112.0
~ wdg=1 bus=81767085002148.1.2.3 conn=delta kv=13.8
~ wdg=2 bus=81767085284522.1.2.3.0 conn=wye kv=0.38

new transformer.UNTRMT_5284523 phases=3 windings=2 %r=1.78 xhl=3.01 kva=30.0
~ wdg=1 bus=81765015002148.1.2.3 conn=delta kv=13.8
~ wdg=2 bus=81765015284523.1.2.3.0 conn=wye kv=0.38

new transformer.UNTRMT_5284524 phases=3 windings=2 %r=1.68 xhl=3.07 kva=45.0
~ wdg=1 bus=81766905002148.1.2.3 conn=delta kv=13.8
~ wdg=2 bus=81766905284524.1.2.3.0 conn=wye kv=0.38

new transformer.UNTRMT_5291512 phases=3 windings=2 %r=1.55 xhl=3.14 kva=75.0
~ wdg=1 bus=82577085002148.1.2.3 conn=delta kv=13.8
~ wdg=2 bus=82577085291512.1.2.3.0 conn=wye kv=0.38

new transformer.UNTRMT_5291624 phases=3 windings=2 %r=1.46 xhl=3.18 kva=112.0
~ wdg=1 bus=82577065002148.1.2.3 conn=delta kv=13.8
~ wdg=2 bus=82577065291624.1.2.3.0 conn=wye kv=0.38

new transformer.UNTRMT_5298775 phases=3 windings=2 %r=1.46 xhl=3.18 kva=112.0
~ wdg=1 bus=82569825002148.1.2.3 conn=delta kv=13.8
~ wdg=2 bus=82569825298775.1.2.3.0 conn=wye kv=0.38

new transformer.UNTRMT_5319294 phases=3 windings=2 %r=1.3 xhl=4.31 kva=225.0
~ wdg=1 bus=84215915002148.1.2.3 conn=delta kv=13.8
~ wdg=2 bus=84215915319294.1.2.3.0 conn=wye kv=0.38

new transformer.UNTRMT_5332641 phases=3 windings=2 %r=1.46 xhl=3.18 kva=112.0
~ wdg=1 bus=85089785002148.1.2.3 conn=delta kv=13.8
~ wdg=2 bus=85089785332641.1.2.3.0 conn=wye kv=0.38

new transformer.UNTRMT_5333316 phases=3 windings=2 %r=1.55 xhl=3.14 kva=75.0
~ wdg=1 bus=85126855002148.1.2.3 conn=delta kv=13.8
~ wdg=2 bus=85126855333316.1.2.3.0 conn=wye kv=0.38

new transformer.UNTRMT_5428903 phases=3 windings=2 %r=1.3 xhl=4.31 kva=225.0
~ wdg=1 bus=86200175002148.1.2.3 conn=delta kv=13.8
~ wdg=2 bus=86200175428903.1.2.3.0 conn=wye kv=0.38

new transformer.UNTRMT_5475069 phases=3 windings=2 %r=1.39 xhl=3.21 kva=112.0
~ wdg=1 bus=87842615002148.1.2.3 conn=delta kv=13.8
~ wdg=2 bus=87842615475069.1.2.3.0 conn=wye kv=0.38

new transformer.UNTRMT_5475115 phases=3 windings=2 %r=1.46 xhl=3.18 kva=112.0
~ wdg=1 bus=87845665002148.1.2.3 conn=delta kv=13.8
~ wdg=2 bus=87845665475115.1.2.3.0 conn=wye kv=0.38

new transformer.UNTRMT_5475117 phases=3 windings=2 %r=1.46 xhl=3.18 kva=112.0
~ wdg=1 bus=87845695002148.1.2.3 conn=delta kv=13.8
~ wdg=2 bus=87845695475117.1.2.3.0 conn=wye kv=0.38

new transformer.UNTRMT_5475119 phases=3 windings=2 %r=1.55 xhl=3.14 kva=75.0
~ wdg=1 bus=87845775002148.1.2.3 conn=delta kv=13.8
~ wdg=2 bus=87845775475119.1.2.3.0 conn=wye kv=0.38

new transformer.UNTRMT_5475120 phases=3 windings=2 %r=1.46 xhl=3.18 kva=112.0
~ wdg=1 bus=87845815002148.1.2.3 conn=delta kv=13.8
~ wdg=2 bus=87845815475120.1.2.3.0 conn=wye kv=0.38

new transformer.UNTRMT_5475121 phases=3 windings=2 %r=1.46 xhl=3.18 kva=112.0
~ wdg=1 bus=87846005002148.1.2.3 conn=delta kv=13.8
~ wdg=2 bus=87846005475121.1.2.3.0 conn=wye kv=0.38

new transformer.UNTRMT_5475122 phases=3 windings=2 %r=1.55 xhl=3.14 kva=75.0
~ wdg=1 bus=87845975002148.1.2.3 conn=delta kv=13.8
~ wdg=2 bus=87845975475122.1.2.3.0 conn=wye kv=0.38

new transformer.UNTRMT_5475123 phases=3 windings=2 %r=1.55 xhl=3.14 kva=75.0
~ wdg=1 bus=87845945002148.1.2.3 conn=delta kv=13.8
~ wdg=2 bus=87845945475123.1.2.3.0 conn=wye kv=0.38

new transformer.UNTRMT_5475125 phases=3 windings=2 %r=1.55 xhl=3.14 kva=75.0
~ wdg=1 bus=87846135002148.1.2.3 conn=delta kv=13.8
~ wdg=2 bus=87846135475125.1.2.3.0 conn=wye kv=0.38

new transformer.UNTRMT_5475126 phases=3 windings=2 %r=1.55 xhl=3.14 kva=75.0
~ wdg=1 bus=87846155002148.1.2.3 conn=delta kv=13.8
~ wdg=2 bus=87846155475126.1.2.3.0 conn=wye kv=0.38

new transformer.UNTRMT_5475127 phases=3 windings=2 %r=1.55 xhl=3.14 kva=75.0
~ wdg=1 bus=87846045002148.1.2.3 conn=delta kv=13.8
~ wdg=2 bus=87846045475127.1.2.3.0 conn=wye kv=0.38

new transformer.UNTRMT_5475129 phases=3 windings=2 %r=1.46 xhl=3.18 kva=112.0
~ wdg=1 bus=87846215002148.1.2.3 conn=delta kv=13.8
~ wdg=2 bus=87846215475129.1.2.3.0 conn=wye kv=0.38

new transformer.UNTRMT_5475130 phases=3 windings=2 %r=1.46 xhl=3.18 kva=112.0
~ wdg=1 bus=87846075002148.1.2.3 conn=delta kv=13.8
~ wdg=2 bus=87846075475130.1.2.3.0 conn=wye kv=0.38

new transformer.UNTRMT_5506841 phases=3 windings=2 %r=1.46 xhl=3.18 kva=112.0
~ wdg=1 bus=88753885002148.1.2.3 conn=delta kv=13.8
~ wdg=2 bus=88753885506841.1.2.3.0 conn=wye kv=0.38

new transformer.UNTRMT_5506842 phases=3 windings=2 %r=1.55 xhl=3.14 kva=75.0
~ wdg=1 bus=88753865002148.1.2.3 conn=delta kv=13.8
~ wdg=2 bus=88753865506842.1.2.3.0 conn=wye kv=0.38

new transformer.UNTRMT_5506843 phases=3 windings=2 %r=1.46 xhl=3.18 kva=112.0
~ wdg=1 bus=88753745002148.1.2.3 conn=delta kv=13.8
~ wdg=2 bus=88753745506843.1.2.3.0 conn=wye kv=0.38

new transformer.UNTRMT_5506845 phases=3 windings=2 %r=1.46 xhl=3.18 kva=112.0
~ wdg=1 bus=88753985002148.1.2.3 conn=delta kv=13.8
~ wdg=2 bus=88753985506845.1.2.3.0 conn=wye kv=0.38

new transformer.UNTRMT_5506847 phases=3 windings=2 %r=1.55 xhl=3.14 kva=75.0
~ wdg=1 bus=88754055002148.1.2.3 conn=delta kv=13.8
~ wdg=2 bus=88754055506847.1.2.3.0 conn=wye kv=0.38

new transformer.UNTRMT_5506848 phases=3 windings=2 %r=1.55 xhl=3.14 kva=75.0
~ wdg=1 bus=88754045002148.1.2.3 conn=delta kv=13.8
~ wdg=2 bus=88754045506848.1.2.3.0 conn=wye kv=0.38

new transformer.UNTRMT_5506849 phases=3 windings=2 %r=1.46 xhl=3.18 kva=112.0
~ wdg=1 bus=88753975002148.1.2.3 conn=delta kv=13.8
~ wdg=2 bus=88753975506849.1.2.3.0 conn=wye kv=0.38

new transformer.UNTRMT_5506850 phases=3 windings=2 %r=1.55 xhl=3.14 kva=75.0
~ wdg=1 bus=88753935002148.1.2.3 conn=delta kv=13.8
~ wdg=2 bus=88753935506850.1.2.3.0 conn=wye kv=0.38

new transformer.UNTRMT_5506851 phases=3 windings=2 %r=1.46 xhl=3.18 kva=112.0
~ wdg=1 bus=88753945002148.1.2.3 conn=delta kv=13.8
~ wdg=2 bus=88753945506851.1.2.3.0 conn=wye kv=0.38

new transformer.UNTRMT_5508201 phases=3 windings=2 %r=1.55 xhl=3.14 kva=75.0
~ wdg=1 bus=88753965002148.1.2.3 conn=delta kv=13.8
~ wdg=2 bus=88753965508201.1.2.3.0 conn=wye kv=0.38

new transformer.UNTRMT_5510096 phases=3 windings=2 %r=1.3 xhl=4.31 kva=225.0
~ wdg=1 bus=88883875002148.1.2.3 conn=delta kv=13.8
~ wdg=2 bus=88883875510096.1.2.3.0 conn=wye kv=0.38

new transformer.UNTRMT_5536137 phases=3 windings=2 %r=1.3 xhl=4.31 kva=225.0
~ wdg=1 bus=89728305002148.1.2.3 conn=delta kv=13.8
~ wdg=2 bus=89728305536137.1.2.3.0 conn=wye kv=0.38

new transformer.UNTRMT_5557630 phases=3 windings=2 %r=1.25 xhl=4.32 kva=300.0
~ wdg=1 bus=90339495002148.1.2.3 conn=delta kv=13.8
~ wdg=2 bus=90339495557630.1.2.3.0 conn=wye kv=0.38

new transformer.UNTRMT_5567209 phases=3 windings=2 %r=1.46 xhl=3.18 kva=112.0
~ wdg=1 bus=90628145002148.1.2.3 conn=delta kv=13.8
~ wdg=2 bus=90628145567209.1.2.3.0 conn=wye kv=0.38

new transformer.UNTRMT_5569009 phases=3 windings=2 %r=1.55 xhl=3.14 kva=75.0
~ wdg=1 bus=90681775002148.1.2.3 conn=delta kv=13.8
~ wdg=2 bus=90681775569009.1.2.3.0 conn=wye kv=0.38

new transformer.UNTRMT_5574805 phases=3 windings=2 %r=1.25 xhl=4.32 kva=300.0
~ wdg=1 bus=90860305002148.1.2.3 conn=delta kv=13.8
~ wdg=2 bus=90860305574805.1.2.3.0 conn=wye kv=0.38

new transformer.UNTRMT_5588113 phases=3 windings=2 %r=1.55 xhl=3.14 kva=75.0
~ wdg=1 bus=91242145002148.1.2.3 conn=delta kv=13.8
~ wdg=2 bus=91242145588113.1.2.3.0 conn=wye kv=0.38

new transformer.UNTRMT_5588114 phases=3 windings=2 %r=1.46 xhl=3.18 kva=112.0
~ wdg=1 bus=91242125002148.1.2.3 conn=delta kv=13.8
~ wdg=2 bus=91242125588114.1.2.3.0 conn=wye kv=0.38

new transformer.UNTRMT_5588116 phases=3 windings=2 %r=1.55 xhl=3.14 kva=75.0
~ wdg=1 bus=88753835002148.1.2.3 conn=delta kv=13.8
~ wdg=2 bus=88753835588116.1.2.3.0 conn=wye kv=0.38

new transformer.UNTRMT_5591736 phases=3 windings=2 %r=1.55 xhl=3.14 kva=75.0
~ wdg=1 bus=91444735002148.1.2.3 conn=delta kv=13.8
~ wdg=2 bus=91444735591736.1.2.3.0 conn=wye kv=0.38

new transformer.UNTRMT_5595161 phases=3 windings=2 %r=1.3 xhl=4.31 kva=225.0
~ wdg=1 bus=93793505002148.1.2.3 conn=delta kv=13.8
~ wdg=2 bus=93793505595161.1.2.3.0 conn=wye kv=0.38

new transformer.UNTRMT_5636885 phases=3 windings=2 %r=1.46 xhl=3.18 kva=112.0
~ wdg=1 bus=92727925002148.1.2.3 conn=delta kv=13.8
~ wdg=2 bus=92727925636885.1.2.3.0 conn=wye kv=0.38

! 6. Linhas de Baixa Tensao (BT)
new line.52873815 phases=3 bus1=80433895284430.1.2.3.0 bus2=80433955284430.1.2.3.0 r1=0.991 x1=0.1 length=0.033632 units=km normamps=100.0
new line.53037906 phases=3 bus1=81754825284428.1.2.3.0 bus2=81754835284428.1.2.3.0 r1=0.613 x1=0.45 length=0.024196 units=km normamps=203.0
new line.53037910 phases=3 bus1=81754865284428.1.2.3.0 bus2=81754835284428.1.2.3.0 r1=0.975 x1=0.47 length=0.020374 units=km normamps=152.0
new line.53038244 phases=3 bus1=81755455284428.1.2.3.0 bus2=81754925284428.1.2.3.0 r1=0.975 x1=0.47 length=0.024478 units=km normamps=152.0
new line.53038248 phases=3 bus1=81754765284428.1.2.3.0 bus2=81754735284428.1.2.3.0 r1=0.975 x1=0.47 length=0.032727 units=km normamps=152.0
new line.53038250 phases=3 bus1=81754775284428.1.2.3.0 bus2=81754785284428.1.2.3.0 r1=0.613 x1=0.45 length=0.033806 units=km normamps=203.0
new line.53038290 phases=3 bus1=81755295284430.1.2.3.0 bus2=81755305284430.1.2.3.0 r1=0.613 x1=0.45 length=0.029246 units=km normamps=203.0
new line.53038292 phases=3 bus1=81755315284430.1.2.3.0 bus2=81755325284430.1.2.3.0 r1=0.613 x1=0.45 length=0.034084 units=km normamps=203.0
new line.53038451 phases=3 bus1=81761885284448.1.2.3.0 bus2=81762025284448.1.2.3.0 r1=0.975 x1=0.47 length=0.027802 units=km normamps=152.0
new line.53038456 phases=3 bus1=81762065284448.1.2.3.0 bus2=81762075284448.1.2.3.0 r1=0.975 x1=0.47 length=0.01812 units=km normamps=152.0
new line.53038457 phases=3 bus1=81762075284448.1.2.3.0 bus2=81762085284448.1.2.3.0 r1=0.975 x1=0.47 length=0.027807 units=km normamps=152.0
...